Platform 12318 3.2355090112031175
Equinox 1649 3.003032140691328
JDT 4194 3.139723414401526
PDE 1532 3.004569190600522
CDT 2448 3.0
z_Archiv 861 2.991869918699187
AspectJ 295 3.3457627118644067
GEF 148 2.9932432432432434
Subversi 60 3.066666666666667
e4 101 3.0
EMF 188 3.0106382978723403
WTP Webs 175 2.954285714285714
AJDT 78 3.076923076923077
MDT.UML2 40 3.0
WTP Sour 349 2.982808022922636
MDT.XSD 6 3.0
ERCP 12 3.0
WTP Comm 100 2.96
WTP Java 153 2.954248366013072
Communit 834 2.984412470023981
BIRT 383 3.0652741514360313
Mylyn Ta 228 2.986842105263158
M2T 43 3.0232558139534884
Mylyn 394 3.251269035532995
WTP Serv 155 3.0
GMF-Runt 483 3.012422360248447
GMF-Tool 398 3.0753768844221105
Data Too 157 2.9936305732484074
BPEL 19 3.4210526315789473
VTP 14 3.0
Java Ser 114 2.9473684210526314
Dali JPA 185 2.918918918918919
WTP Rele 43 2.953488372093023
EPF 47 3.127659574468085
Web Tool 15 3.0
Target M 377 3.013262599469496
ATF 49 2.836734693877551
Modeling 19 3.0526315789473686
WTP EJB 10 3.0
EMFT 32 3.0
Mylyn Co 70 2.942857142857143
PDT 252 2.8253968253968256
Nebula 39 2.8974358974358974
Orbit 66 2.984848484848485
CBI 74 2.9594594594594597
EPP 196 3.0153061224489797
STEM 15 3.066666666666667
DLTK 105 2.895238095238095
EMF Serv 14 2.857142857142857
QVTo 106 3.0
EclipseL 989 2.8159757330637007
RAP 169 3.0059171597633134
Babel 58 3.0
JWT 29 2.9655172413793105
ECF 56 3.0
JSDT 254 2.9803149606299213
Tigerstr 4 3.0
TCF 65 3.0
Incubato 1 3.0
MMT.ATL 17 3.0
WTP Incu 25 3.04
OCL 262 3.0
Ecoretoo 9 3.0
Mangrove 2 3.0
Mylyn Do 62 2.9838709677419355
SWTBot 34 3.0
Riena 38 3.0
Linux To 145 3.0
XWT 12 3.0
ACTF 2 3.0
GEF3D 5 3.0
MTJ 16 2.8125
PTP 126 3.1031746031746033
TMF 212 3.0754716981132075
RTSC 55 2.7454545454545456
MAT 30 3.0
OSEE 15 3.066666666666667
Dash 62 2.9516129032258065
AMP 24 2.9583333333333335
Papyrus 728 3.0054945054945055
Mylyn Re 105 2.942857142857143
JGit 134 3.0
EEF 6 3.0
GMF-Nota 7 3.0
EGit 435 3.0
Epsilon 19 3.1052631578947367
MPC 40 2.975
Virgo 85 2.9647058823529413
SOA Plat 3 3.0
MDT.MoDi 78 4.141025641025641
Objectte 31 3.0
Mylyn Ve 7 3.0
MDT.BPMN 7 3.0
Hudson 147 2.993197278911565
Libra 13 3.0
Mylyn Bu 18 3.0
Sapphire 22 3.0
Gemini.J 11 3.0
Woolsey 1 3.0
EMFT.fac 58 4.586206896551724
Gemini 1 3.0
UOMo 2 4.5
Remus 2 3.0
Mylyn In 2 3.5
Tycho 208 2.9326923076923075
Graphiti 29 3.413793103448276
EMF.EGF 4 3.0
Sphinx 13 2.769230769230769
Gemini.W 2 3.0
Jubula 94 2.9468085106382977
WindowBu 40 3.0
Orion 55 3.0
Acceleo 21 3.0
Skalli 2 3.0
Xtend 101 3.0
m2e 60 3.0
Working 13 2.8461538461538463
EMFT.Hen 4 3.0
Gemini.N 1 3.0
Paho 7 3.0
MDT.RMF 8 2.875
Edapt 9 3.6666666666666665
NatTable 7 3.0
RTP 2 3.0
M2E-WTP 26 3.0
LDT 13 3.923076923076923
Lyo 49 3.0408163265306123
Viatra 36 2.9722222222222223
MDT 6 3.0
Efxclips 31 3.0
EMFCompa 57 3.0
Tracecom 94 3.0
Eclemma 6 3.0
ECP 71 2.3943661971830985
Amalgam 5 3.0
Sirius 253 3.0237154150197627
Oomph 63 3.0
Sisu 5 3.0
Scada 5 3.0
BPMN2Mod 17 2.9411764705882355
Scout 7 3.0
RCPTT 30 2.933333333333333
Kura 15 3.0
UMLGen 2 3.0
FMC 2 3.0
QVTd 132 3.0
Thym 5 3.0
Gendoc 6 3.0
EMFT.Ref 2 3.0
Ice 35 3.0
EATop 3 3.0
Ease 33 3.0
andmore 23 3.0
Che 4 3.0
EBR 2 3.0
eTrice 18 3.0
Papyrus- 134 3.074626865671642
Vertx 4 3.0
EMF.Pars 3 3.0
Egerrit 14 3.0
Californ 2 3.0
PMF 15 3.0
CFT 5 3.0
Tm4e 1 3.0
MDHT 3 3.0
Technolo 2 3.0
OM2M 9 3.0
USSSDK 2 3.0
Buildshi 7 3.0
Dirigibl 4 3.0
GMP 1 3.0
4DIAC 21 3.0
Yasson 1 3.0
Titan 7 3.0
Capra 8 3.0
lsp4e 26 3.0
Micropro 2 3.0
Drupal 1 3.0
EMF.Diff 1 3.0
Wakaama 1 3.0
MDMBL 6 3.0
EFM 2 3.0
Chemclip 2 3.0
uDig 1 3.0
Texlipse 1 3.0
Simopenp 3 3.0
XACC 1 3.0
Statet 7 3.0
Jersey 1 3.0
jakartae 1 3.0
Glassfis 1 3.0
OGEE 1 3.0
